
**** 02/12/19 23:11:33 ****** PSpice Lite (October 2012) ****** ID# 10813 ****

 ** non inverting amplifier analysis


 ****     CIRCUIT DESCRIPTION


******************************************************************************





.LIB C:\OrCAD\OrCAD_16.6_Lite\tools\pspice\library\eval.lib


        X1 1 2 4 5 3 UA741 
        
        R1 2 0 1K 
        R2 3 2 1K 
     
   * VIN 1 0 0V  DEFAULT DC 
   
   * FOR AC 
   VIN 1 0 DC 0V AC 100MV       


        VDD 4 0 10V 
        VSS 5 0 -10V

        ** FOR DC ANALYSIS 
        *.DC VIN -10V 10V 0.1V 


    ** FOR AC ANALYSIS
        .AC DEC 50 10 100MEG   ** 10 hertz to 100 Mega hertz with 
-------------------------------$
ERROR(ORPSIM-16371): Extra text on line

.PROBE 
.END                        
