
**** 02/12/19 23:20:04 ****** PSpice Lite (October 2012) ****** ID# 10813 ****

 ** non inverting amplifier analysis


 ****     CIRCUIT DESCRIPTION


******************************************************************************





.LIB C:\OrCAD\OrCAD_16.6_Lite\tools\pspice\library\eval.lib


        X1 1 2 4 5 3 UA741 
        
        R1 2 0 1K 
        R2 3 2 10K 
     
   * VIN 1 0 0V  DEFAULT DC 
   
   * FOR AC 
   VIN 1 0 DC 0V AC 100m        


        VDD 4 0 10V 
        VSS 5 0 -10V

        ** FOR DC ANALYSIS 
        *.DC VIN -10V 10V 0.1V 


    ** FOR AC ANALYSIS
        .AC DEC 50 10 100MEG   
        ** 10 hertz to 100 Mega hertz with 

.PROBE 
.END                        

**** 02/12/19 23:20:04 ****** PSpice Lite (October 2012) ****** ID# 10813 ****

 ** non inverting amplifier analysis


 ****     Diode MODEL PARAMETERS


******************************************************************************




               X1.dx           
          IS  800.000000E-18 
          RS    1            


**** 02/12/19 23:20:04 ****** PSpice Lite (October 2012) ****** ID# 10813 ****

 ** non inverting amplifier analysis


 ****     BJT MODEL PARAMETERS


******************************************************************************




               X1.qx           
               NPN             
       LEVEL    1            
          IS  800.000000E-18 
          BF   93.75         
          NF    1            
          BR    1            
          NR    1            
         ISS    0            
          RE    0            
          RC    0            
         CJE    0            
         VJE     .75         
         CJC    0            
         VJC     .75         
         MJC     .33         
        XCJC    1            
         CJS    0            
         VJS     .75         
          KF    0            
          AF    1            
          CN    2.42         
           D     .87         


**** 02/12/19 23:20:04 ****** PSpice Lite (October 2012) ****** ID# 10813 ****

 ** non inverting amplifier analysis


 ****     SMALL SIGNAL BIAS SOLUTION       TEMPERATURE =   27.000 DEG C


******************************************************************************



 NODE   VOLTAGE     NODE   VOLTAGE     NODE   VOLTAGE     NODE   VOLTAGE


(    1)    0.0000  (    2) 19.25E-06  (    3)     .0010  (    4)   10.0000      

(    5)  -10.0000  ( X1.6)-97.08E-09  ( X1.7)     .0010  ( X1.8)     .0010      

( X1.9)    0.0000  (X1.10)    -.6077  (X1.11)    9.9603  (X1.12)    9.9603      

(X1.13)    -.5938  (X1.14)    -.5938  (X1.53)    9.0000  (X1.54)   -9.0000      

(X1.90) 99.01E-06  (X1.91)   40.0000  (X1.92)  -40.0000  (X1.99)    0.0000  




    VOLTAGE SOURCE CURRENTS
    NAME         CURRENT

    VIN         -7.973E-08
    VDD         -1.116E-03
    VSS          1.116E-03
    X1.vb       -9.708E-13
    X1.vc        9.000E-12
    X1.ve        9.002E-12
    X1.vlim      9.901E-08
    X1.vlp      -4.000E-11
    X1.vln      -4.000E-11

    TOTAL POWER DISSIPATION   2.23E-02  WATTS



          JOB CONCLUDED

**** 02/12/19 23:20:04 ****** PSpice Lite (October 2012) ****** ID# 10813 ****

 ** non inverting amplifier analysis


 ****     JOB STATISTICS SUMMARY


******************************************************************************



  Total job time (using Solver 1)   =         .02
